data_Monolayer-POSCAR\(2)
_audit_creation_date              2021-10-27
_audit_creation_method            'Materials Studio'
_symmetry_space_group_name_H-M    'P4/MMM'
_symmetry_Int_Tables_number       123
_symmetry_cell_setting            tetragonal
loop_
_symmetry_equiv_pos_as_xyz
  x,y,z
  -x,-y,z
  -y,x,z
  y,-x,z
  -x,y,-z
  x,-y,-z
  y,x,-z
  -y,-x,-z
  -x,-y,-z
  x,y,-z
  y,-x,-z
  -y,x,-z
  x,-y,z
  -x,y,z
  -y,-x,z
  y,x,z
_cell_length_a                    3.3234
_cell_length_b                    3.3234
_cell_length_c                    14.9191
_cell_angle_alpha                 90.0000
_cell_angle_beta                  90.0000
_cell_angle_gamma                 90.0000
loop_
_atom_site_label
_atom_site_type_symbol
_atom_site_fract_x
_atom_site_fract_y
_atom_site_fract_z
_atom_site_U_iso_or_equiv
_atom_site_adp_type
_atom_site_occupancy
Bi1    Bi    0.50000   0.50000   0.37653   0.01267  Uiso   1.00
Pd1    Pd    0.00000   0.00000   0.50000   0.01267  Uiso   1.00
